[General]
network = manet.MANET
sim-time-limit = 1.5s

load-libs = model oppcmdenv
ned-path = model;mixim/examples;mixim/src/base;mixim/src/modules;inet/
*.switch.eth[*].mac.txQueueLimit = 100000
*.switch.relayUnit.addressTableSize = 1000
##########################################################
#					Logging                 			 #
##########################################################
cmdenv-express-mode = true
cmdenv-event-banners = true
**.debug = false
cmdenv-module-messages = false
**.coreDebug = false
##########################################################
#		Network Configurator parameters                  #
##########################################################
#*.configurator.config = xmldoc("network-config/network-demo.xml")
*.ethernet = true

*.configurator.dumpTopology = true
*.configurator.dumpAddresses = true
*.configurator.dumpRoutes = true
*.configurator.dumpLinks = true

##########################################################
#	 	Visualization parameters                         #
##########################################################
scheduler-class = "cSocketSequentialScheduler" #other option is cSocketRealTimeScheduler, or comment if you do not need visualization.

**.visualize = true
**.playgroundLatitude = -25.39
**.playgroundLongitude = 131.05
**.node[*].appl.modelURL = "http://omnetpp.org/download/demo/car.kmz/models/skpfile.dae"
**.node[*].appl.txRange = 249m
**.node[*].appl.modelScale = 5

##########################################################
#      				 NIC cards        	     	  		 #
##########################################################
**.node[*].nic802154Type = "Nic802154_TI_CC2420" # max range around 250m
#**.node[*].nic80211Type = "Nic80211" # max range around 250m
**.router[*].wlan[0].typename = "Nic80211" # max range around 250m

##############################################################################
#       Parameters for the 802.11 ConnectionManager                          #
##############################################################################
**.node[*].nic80211.connectionManagerName = "channel80211"
**.router[*].wlan[0].connectionManagerName = "channel80211"

**.channel80211.sendDirect = false
**.channel80211.pMax = 110.11mW  # [mW]
**.channel80211.sat = -110dBm  # [dBm]
**.channel80211.alpha = 3
**.channel80211.carrierFrequency = 2.4e+9Hz  # [Hz]

##############################################################################
#       Parameters for the 802.15.4 ConnectionManager                        #
##############################################################################
**.node[*].nic802154.connectionManagerName = "channel802154"

**.channel802154.sendDirect = false
**.channel802154.pMax = 1.1mW
**.channel802154.sat = -100dBm
**.channel802154.alpha = 2.5
**.channel802154.carrierFrequency = 2.4E+9Hz
##############################################################################
#       Parameters for the 802.15.4 MAC-Layer                                #
##############################################################################

**.nic802154.mac.txPower = 1mW  # [mW]
**.nic802154.mac.notAffectedByHostState = true
**.nic802154.mac.macMinBE = 1
**.nic802154.mac.macMaxBE = 6
**.nic802154.mac.macMaxCSMABackoffs = 20
**.nic802154.mac.macAckWaitDuration = 0.000864s
**.nic802154.mac.aUnitBackoffPeriod = 0.02s

##############################################################################
#       Parameters for the 802.11 MAC-Layer                                  #
##############################################################################

# debug switch
**.nic80211.mac.headerLength = 272 bit
**.nic80211.mac.queueLength = 14
**.nic80211.mac.bitrate = 2E+6bps# in bits/second
**.nic80211.mac.defaultChannel = 0
**.nic80211.mac.autoBitrate = false

### values if no fading is modelled, gives at most 1% packet error rate
**.nic80211.mac.snr2Mbit = 1.46dB  # [dB]
**.nic80211.mac.snr5Mbit = 2.6dB  # [dB]
**.nic80211.mac.snr11Mbit = 5.68dB  # [dB]

**.nic80211.mac.rtsCtsThreshold = 400
**.nic80211.mac.neighborhoodCacheSize = 30
**.nic80211.mac.neighborhoodCacheMaxAge = 100s  # [s]

**.nic80211.mac.txPower = 110.11mW  # [mW]
**.nic80211.mac.centerFrequency = 2.4e+9Hz

# debug switch
**.router[*].wlan[0].mac.headerLength = 272 bit
**.router[*].wlan[0].mac.queueLength = 14
**.router[*].wlan[0].mac.bitrate = 2E+6bps# in bits/second
**.router[*].wlan[0].mac.defaultChannel = 0
**.router[*].wlan[0].mac.autoBitrate = false

### values if no fading is modelled, gives at most 1% packet error rate
**.router[*].wlan[0].mac.snr2Mbit = 1.46dB  # [dB]
**.router[*].wlan[0].mac.snr5Mbit = 2.6dB  # [dB]
**.router[*].wlan[0].mac.snr11Mbit = 5.68dB  # [dB]

**.router[*].wlan[0].mac.rtsCtsThreshold = 400
**.router[*].wlan[0].mac.neighborhoodCacheSize = 30
**.router[*].wlan[0].mac.neighborhoodCacheMaxAge = 100s  # [s]

**.router[*].wlan[0].mac.txPower = 110.11mW  # [mW]
**.router[*].wlan[0].mac.centerFrequency = 2.4e+9Hz

##############################################################################
#       Parameters for the 802.15.4 Phy                                      #
##############################################################################

**.nic802154.phy.usePropagationDelay = false
**.nic802154.phy.analogueModels = xmldoc("config802154.xml")
#**.nic802154.phy.decider = xmldoc("Nic802154_TI_CC2420_Decider.xml")
**.nic802154.phy.sensitivity = -100dBm
**.nic802154.phy.maxTXPower = 1.1mW
**.nic802154.phy.initialRadioState = 0
**.nic802154.phy.useThermalNoise = true

### battery-related parameters
**.battery.debug = false
**.battery.nominal = 99999mAh
**.battery.capacity = 99999mAh
**.battery.voltage = 3.3V
**.battery.resolution = 0.1s
**.battery.publishDelta = 1
**.battery.publishTime = 0
**.battery.numDevices = 1

**.batteryStats.debug = false
**.batteryStats.detail = false
**.batteryStats.timeSeries = false

##############################################################################
#       Parameters for the 802.11 Phy                                        #
##############################################################################

**.nic80211.phy.usePropagationDelay = false
**.nic80211.phy.thermalNoise = -110dBm  # [dBm]
**.nic80211.phy.analogueModels = xmldoc("config80211.xml")
**.nic80211.phy.decider = xmldoc("config80211.xml")
**.nic80211.phy.sensitivity = -119.5dBm  # [dBm]
**.nic80211.phy.maxTXPower = 110.11mW
**.nic80211.phy.timeRXToTX = 0s
**.nic80211.phy.timeRXToSleep = 0s
**.nic80211.phy.timeTXToRX = 0s
**.nic80211.phy.timeTXToSleep = 0s
**.nic80211.phy.timeSleepToRX = 0s
**.nic80211.phy.timeSleepToTX = 0s
**.nic80211.phy.initialRadioState = 0
**.nic80211.phy.useThermalNoise = true

**.router[*].wlan[0].phy.usePropagationDelay = false
**.router[*].wlan[0].phy.thermalNoise = -110dBm  # [dBm]
**.router[*].wlan[0].phy.analogueModels = xmldoc("config80211.xml")
**.router[*].wlan[0].phy.decider = xmldoc("config80211.xml")
**.router[*].wlan[0].phy.sensitivity = -119.5dBm  # [dBm]
**.router[*].wlan[0].phy.maxTXPower = 110.11mW
**.router[*].wlan[0].phy.timeRXToTX = 0s
**.router[*].wlan[0].phy.timeRXToSleep = 0s
**.router[*].wlan[0].phy.timeTXToRX = 0s
**.router[*].wlan[0].phy.timeTXToSleep = 0s
**.router[*].wlan[0].phy.timeSleepToRX = 0s
**.router[*].wlan[0].phy.timeSleepToTX = 0s
**.router[*].wlan[0].phy.initialRadioState = 0
**.router[*].wlan[0].phy.useThermalNoise = true


#Added by mkit start

**.router[*].wlan[0].mgmtType = "Ieee80211MgmtAdhoc"
**.router[*].mobilityType = "StationaryMobility"
**.router[*].mobility.initFromDisplayString = false
**.router[*].numRadios = 1

##########################################################
#       			Application                          #
##########################################################
**.node[*].applicationType = "JDEECoApplication"
**.node[*].appl.packet80211ByteLength = 1000B
**.node[*].appl.packet802154ByteLength = 1000B

##########################################################
#       			Nodes Mobility                       #
##########################################################
**.node[*].mobilityType = "StationaryMobility"
**.node[*].mobility.initFromDisplayString = false

##########################################################
#       			Generated                            #
##########################################################
# the following is to be generated

#**.playgroundSizeX = 1500m
#**.playgroundSizeY = 1500m

#**.numNodes = 5

#**.node[0].mobility.initialX = 150m
#**.node[0].mobility.initialY = 200m
#**.node[0].mobility.initialZ = 250m
#**.node[0].appl.id = NodeID

**.playgroundSizeX = 3000m
**.playgroundSizeY = 3000m

**.numNodes = 220

**.node[0].mobility.initialX = 707m
**.node[0].mobility.initialY = 316m
**.node[0].mobility.initialZ = 0m
**.node[0].appl.id = "L0"

**.node[1].mobility.initialX = 470m
**.node[1].mobility.initialY = 559m
**.node[1].mobility.initialZ = 0m
**.node[1].appl.id = "L1"

**.node[2].mobility.initialX = 605m
**.node[2].mobility.initialY = 584m
**.node[2].mobility.initialZ = 0m
**.node[2].appl.id = "L2"

**.node[3].mobility.initialX = 740m
**.node[3].mobility.initialY = 541m
**.node[3].mobility.initialZ = 0m
**.node[3].appl.id = "L3"

**.node[4].mobility.initialX = 583m
**.node[4].mobility.initialY = 419m
**.node[4].mobility.initialZ = 0m
**.node[4].appl.id = "L4"

**.node[5].mobility.initialX = 200m
**.node[5].mobility.initialY = 426m
**.node[5].mobility.initialZ = 0m
**.node[5].appl.id = "L5"

**.node[6].mobility.initialX = 387m
**.node[6].mobility.initialY = 530m
**.node[6].mobility.initialZ = 0m
**.node[6].appl.id = "L6"

**.node[7].mobility.initialX = 724m
**.node[7].mobility.initialY = 455m
**.node[7].mobility.initialZ = 0m
**.node[7].appl.id = "L7"

**.node[8].mobility.initialX = 469m
**.node[8].mobility.initialY = 415m
**.node[8].mobility.initialZ = 0m
**.node[8].appl.id = "L8"

**.node[9].mobility.initialX = 723m
**.node[9].mobility.initialY = 434m
**.node[9].mobility.initialZ = 0m
**.node[9].appl.id = "L9"

**.node[10].mobility.initialX = 2115m
**.node[10].mobility.initialY = 2060m
**.node[10].mobility.initialZ = 0m
**.node[10].appl.id = "L10"

**.node[11].mobility.initialX = 2653m
**.node[11].mobility.initialY = 2000m
**.node[11].mobility.initialZ = 0m
**.node[11].appl.id = "L11"

**.node[12].mobility.initialX = 2662m
**.node[12].mobility.initialY = 1996m
**.node[12].mobility.initialZ = 0m
**.node[12].appl.id = "L12"

**.node[13].mobility.initialX = 2446m
**.node[13].mobility.initialY = 1747m
**.node[13].mobility.initialZ = 0m
**.node[13].appl.id = "L13"

**.node[14].mobility.initialX = 2598m
**.node[14].mobility.initialY = 2161m
**.node[14].mobility.initialZ = 0m
**.node[14].appl.id = "L14"

**.node[15].mobility.initialX = 594m
**.node[15].mobility.initialY = 2104m
**.node[15].mobility.initialZ = 0m
**.node[15].appl.id = "L15"

**.node[16].mobility.initialX = 640m
**.node[16].mobility.initialY = 2031m
**.node[16].mobility.initialZ = 0m
**.node[16].appl.id = "L16"

**.node[17].mobility.initialX = 671m
**.node[17].mobility.initialY = 2151m
**.node[17].mobility.initialZ = 0m
**.node[17].appl.id = "L17"

**.node[18].mobility.initialX = 817m
**.node[18].mobility.initialY = 1963m
**.node[18].mobility.initialZ = 0m
**.node[18].appl.id = "L18"

**.node[19].mobility.initialX = 474m
**.node[19].mobility.initialY = 1922m
**.node[19].mobility.initialZ = 0m
**.node[19].appl.id = "L19"

**.node[20].mobility.initialX = 2424m
**.node[20].mobility.initialY = 919m
**.node[20].mobility.initialZ = 0m
**.node[20].appl.id = "L20"

**.node[21].mobility.initialX = 2451m
**.node[21].mobility.initialY = 674m
**.node[21].mobility.initialZ = 0m
**.node[21].appl.id = "L21"

**.node[22].mobility.initialX = 2683m
**.node[22].mobility.initialY = 896m
**.node[22].mobility.initialZ = 0m
**.node[22].appl.id = "L22"

**.node[23].mobility.initialX = 2178m
**.node[23].mobility.initialY = 795m
**.node[23].mobility.initialZ = 0m
**.node[23].appl.id = "L23"

**.node[24].mobility.initialX = 2173m
**.node[24].mobility.initialY = 996m
**.node[24].mobility.initialZ = 0m
**.node[24].appl.id = "L24"

**.node[25].mobility.initialX = 430m
**.node[25].mobility.initialY = 356m
**.node[25].mobility.initialZ = 0m
**.node[25].appl.id = "M0"

**.node[26].mobility.initialX = 641m
**.node[26].mobility.initialY = 465m
**.node[26].mobility.initialZ = 0m
**.node[26].appl.id = "M1"

**.node[27].mobility.initialX = 390m
**.node[27].mobility.initialY = 310m
**.node[27].mobility.initialZ = 0m
**.node[27].appl.id = "M2"

**.node[28].mobility.initialX = 212m
**.node[28].mobility.initialY = 471m
**.node[28].mobility.initialZ = 0m
**.node[28].appl.id = "M3"

**.node[29].mobility.initialX = 686m
**.node[29].mobility.initialY = 338m
**.node[29].mobility.initialZ = 0m
**.node[29].appl.id = "M4"

**.node[30].mobility.initialX = 640m
**.node[30].mobility.initialY = 581m
**.node[30].mobility.initialZ = 0m
**.node[30].appl.id = "M5"

**.node[31].mobility.initialX = 700m
**.node[31].mobility.initialY = 281m
**.node[31].mobility.initialZ = 0m
**.node[31].appl.id = "M6"

**.node[32].mobility.initialX = 756m
**.node[32].mobility.initialY = 559m
**.node[32].mobility.initialZ = 0m
**.node[32].appl.id = "M7"

**.node[33].mobility.initialX = 562m
**.node[33].mobility.initialY = 204m
**.node[33].mobility.initialZ = 0m
**.node[33].appl.id = "M8"

**.node[34].mobility.initialX = 245m
**.node[34].mobility.initialY = 487m
**.node[34].mobility.initialZ = 0m
**.node[34].appl.id = "M9"

**.node[35].mobility.initialX = 526m
**.node[35].mobility.initialY = 259m
**.node[35].mobility.initialZ = 0m
**.node[35].appl.id = "M10"

**.node[36].mobility.initialX = 241m
**.node[36].mobility.initialY = 454m
**.node[36].mobility.initialZ = 0m
**.node[36].appl.id = "M11"

**.node[37].mobility.initialX = 241m
**.node[37].mobility.initialY = 397m
**.node[37].mobility.initialZ = 0m
**.node[37].appl.id = "M12"

**.node[38].mobility.initialX = 344m
**.node[38].mobility.initialY = 481m
**.node[38].mobility.initialZ = 0m
**.node[38].appl.id = "M13"

**.node[39].mobility.initialX = 561m
**.node[39].mobility.initialY = 428m
**.node[39].mobility.initialZ = 0m
**.node[39].appl.id = "M14"

**.node[40].mobility.initialX = 203m
**.node[40].mobility.initialY = 441m
**.node[40].mobility.initialZ = 0m
**.node[40].appl.id = "M15"

**.node[41].mobility.initialX = 575m
**.node[41].mobility.initialY = 215m
**.node[41].mobility.initialZ = 0m
**.node[41].appl.id = "M16"

**.node[42].mobility.initialX = 637m
**.node[42].mobility.initialY = 407m
**.node[42].mobility.initialZ = 0m
**.node[42].appl.id = "M17"

**.node[43].mobility.initialX = 780m
**.node[43].mobility.initialY = 432m
**.node[43].mobility.initialZ = 0m
**.node[43].appl.id = "M18"

**.node[44].mobility.initialX = 466m
**.node[44].mobility.initialY = 273m
**.node[44].mobility.initialZ = 0m
**.node[44].appl.id = "M19"

**.node[45].mobility.initialX = 260m
**.node[45].mobility.initialY = 284m
**.node[45].mobility.initialZ = 0m
**.node[45].appl.id = "M20"

**.node[46].mobility.initialX = 299m
**.node[46].mobility.initialY = 375m
**.node[46].mobility.initialZ = 0m
**.node[46].appl.id = "M21"

**.node[47].mobility.initialX = 429m
**.node[47].mobility.initialY = 306m
**.node[47].mobility.initialZ = 0m
**.node[47].appl.id = "M22"

**.node[48].mobility.initialX = 605m
**.node[48].mobility.initialY = 211m
**.node[48].mobility.initialZ = 0m
**.node[48].appl.id = "M23"

**.node[49].mobility.initialX = 209m
**.node[49].mobility.initialY = 369m
**.node[49].mobility.initialZ = 0m
**.node[49].appl.id = "M24"

**.node[50].mobility.initialX = 2429m
**.node[50].mobility.initialY = 2175m
**.node[50].mobility.initialZ = 0m
**.node[50].appl.id = "M25"

**.node[51].mobility.initialX = 2249m
**.node[51].mobility.initialY = 1778m
**.node[51].mobility.initialZ = 0m
**.node[51].appl.id = "M26"

**.node[52].mobility.initialX = 2432m
**.node[52].mobility.initialY = 2076m
**.node[52].mobility.initialZ = 0m
**.node[52].appl.id = "M27"

**.node[53].mobility.initialX = 2357m
**.node[53].mobility.initialY = 2284m
**.node[53].mobility.initialZ = 0m
**.node[53].appl.id = "M28"

**.node[54].mobility.initialX = 2393m
**.node[54].mobility.initialY = 2257m
**.node[54].mobility.initialZ = 0m
**.node[54].appl.id = "M29"

**.node[55].mobility.initialX = 2458m
**.node[55].mobility.initialY = 1741m
**.node[55].mobility.initialZ = 0m
**.node[55].appl.id = "M30"

**.node[56].mobility.initialX = 2618m
**.node[56].mobility.initialY = 2067m
**.node[56].mobility.initialZ = 0m
**.node[56].appl.id = "M31"

**.node[57].mobility.initialX = 2451m
**.node[57].mobility.initialY = 2223m
**.node[57].mobility.initialZ = 0m
**.node[57].appl.id = "M32"

**.node[58].mobility.initialX = 2161m
**.node[58].mobility.initialY = 1891m
**.node[58].mobility.initialZ = 0m
**.node[58].appl.id = "M33"

**.node[59].mobility.initialX = 2606m
**.node[59].mobility.initialY = 1854m
**.node[59].mobility.initialZ = 0m
**.node[59].appl.id = "M34"

**.node[60].mobility.initialX = 2406m
**.node[60].mobility.initialY = 1741m
**.node[60].mobility.initialZ = 0m
**.node[60].appl.id = "M35"

**.node[61].mobility.initialX = 2432m
**.node[61].mobility.initialY = 1851m
**.node[61].mobility.initialZ = 0m
**.node[61].appl.id = "M36"

**.node[62].mobility.initialX = 2420m
**.node[62].mobility.initialY = 1812m
**.node[62].mobility.initialZ = 0m
**.node[62].appl.id = "M37"

**.node[63].mobility.initialX = 2190m
**.node[63].mobility.initialY = 1803m
**.node[63].mobility.initialZ = 0m
**.node[63].appl.id = "M38"

**.node[64].mobility.initialX = 2368m
**.node[64].mobility.initialY = 1811m
**.node[64].mobility.initialZ = 0m
**.node[64].appl.id = "M39"

**.node[65].mobility.initialX = 2338m
**.node[65].mobility.initialY = 1759m
**.node[65].mobility.initialZ = 0m
**.node[65].appl.id = "M40"

**.node[66].mobility.initialX = 2148m
**.node[66].mobility.initialY = 1847m
**.node[66].mobility.initialZ = 0m
**.node[66].appl.id = "M41"

**.node[67].mobility.initialX = 2390m
**.node[67].mobility.initialY = 1745m
**.node[67].mobility.initialZ = 0m
**.node[67].appl.id = "M42"

**.node[68].mobility.initialX = 2577m
**.node[68].mobility.initialY = 1836m
**.node[68].mobility.initialZ = 0m
**.node[68].appl.id = "M43"

**.node[69].mobility.initialX = 2254m
**.node[69].mobility.initialY = 2117m
**.node[69].mobility.initialZ = 0m
**.node[69].appl.id = "M44"

**.node[70].mobility.initialX = 2177m
**.node[70].mobility.initialY = 1908m
**.node[70].mobility.initialZ = 0m
**.node[70].appl.id = "M45"

**.node[71].mobility.initialX = 2132m
**.node[71].mobility.initialY = 2076m
**.node[71].mobility.initialZ = 0m
**.node[71].appl.id = "M46"

**.node[72].mobility.initialX = 2321m
**.node[72].mobility.initialY = 1877m
**.node[72].mobility.initialZ = 0m
**.node[72].appl.id = "M47"

**.node[73].mobility.initialX = 2214m
**.node[73].mobility.initialY = 1903m
**.node[73].mobility.initialZ = 0m
**.node[73].appl.id = "M48"

**.node[74].mobility.initialX = 2502m
**.node[74].mobility.initialY = 2252m
**.node[74].mobility.initialZ = 0m
**.node[74].appl.id = "M49"

**.node[75].mobility.initialX = 2175m
**.node[75].mobility.initialY = 2084m
**.node[75].mobility.initialZ = 0m
**.node[75].appl.id = "M50"

**.node[76].mobility.initialX = 2390m
**.node[76].mobility.initialY = 1891m
**.node[76].mobility.initialZ = 0m
**.node[76].appl.id = "M51"

**.node[77].mobility.initialX = 2474m
**.node[77].mobility.initialY = 1872m
**.node[77].mobility.initialZ = 0m
**.node[77].appl.id = "M52"

**.node[78].mobility.initialX = 2157m
**.node[78].mobility.initialY = 1846m
**.node[78].mobility.initialZ = 0m
**.node[78].appl.id = "M53"

**.node[79].mobility.initialX = 2341m
**.node[79].mobility.initialY = 1858m
**.node[79].mobility.initialZ = 0m
**.node[79].appl.id = "M54"

**.node[80].mobility.initialX = 553m
**.node[80].mobility.initialY = 2237m
**.node[80].mobility.initialZ = 0m
**.node[80].appl.id = "M55"

**.node[81].mobility.initialX = 633m
**.node[81].mobility.initialY = 1858m
**.node[81].mobility.initialZ = 0m
**.node[81].appl.id = "M56"

**.node[82].mobility.initialX = 620m
**.node[82].mobility.initialY = 1766m
**.node[82].mobility.initialZ = 0m
**.node[82].appl.id = "M57"

**.node[83].mobility.initialX = 777m
**.node[83].mobility.initialY = 1758m
**.node[83].mobility.initialZ = 0m
**.node[83].appl.id = "M58"

**.node[84].mobility.initialX = 619m
**.node[84].mobility.initialY = 2156m
**.node[84].mobility.initialZ = 0m
**.node[84].appl.id = "M59"

**.node[85].mobility.initialX = 712m
**.node[85].mobility.initialY = 2129m
**.node[85].mobility.initialZ = 0m
**.node[85].appl.id = "M60"

**.node[86].mobility.initialX = 424m
**.node[86].mobility.initialY = 2104m
**.node[86].mobility.initialZ = 0m
**.node[86].appl.id = "M61"

**.node[87].mobility.initialX = 650m
**.node[87].mobility.initialY = 2286m
**.node[87].mobility.initialZ = 0m
**.node[87].appl.id = "M62"

**.node[88].mobility.initialX = 586m
**.node[88].mobility.initialY = 1796m
**.node[88].mobility.initialZ = 0m
**.node[88].appl.id = "M63"

**.node[89].mobility.initialX = 861m
**.node[89].mobility.initialY = 1942m
**.node[89].mobility.initialZ = 0m
**.node[89].appl.id = "M64"

**.node[90].mobility.initialX = 502m
**.node[90].mobility.initialY = 2103m
**.node[90].mobility.initialZ = 0m
**.node[90].appl.id = "M65"

**.node[91].mobility.initialX = 584m
**.node[91].mobility.initialY = 1834m
**.node[91].mobility.initialZ = 0m
**.node[91].appl.id = "M66"

**.node[92].mobility.initialX = 542m
**.node[92].mobility.initialY = 1743m
**.node[92].mobility.initialZ = 0m
**.node[92].appl.id = "M67"

**.node[93].mobility.initialX = 644m
**.node[93].mobility.initialY = 1950m
**.node[93].mobility.initialZ = 0m
**.node[93].appl.id = "M68"

**.node[94].mobility.initialX = 608m
**.node[94].mobility.initialY = 2228m
**.node[94].mobility.initialZ = 0m
**.node[94].appl.id = "M69"

**.node[95].mobility.initialX = 467m
**.node[95].mobility.initialY = 2199m
**.node[95].mobility.initialZ = 0m
**.node[95].appl.id = "M70"

**.node[96].mobility.initialX = 672m
**.node[96].mobility.initialY = 1943m
**.node[96].mobility.initialZ = 0m
**.node[96].appl.id = "M71"

**.node[97].mobility.initialX = 756m
**.node[97].mobility.initialY = 2206m
**.node[97].mobility.initialZ = 0m
**.node[97].appl.id = "M72"

**.node[98].mobility.initialX = 863m
**.node[98].mobility.initialY = 1880m
**.node[98].mobility.initialZ = 0m
**.node[98].appl.id = "M73"

**.node[99].mobility.initialX = 387m
**.node[99].mobility.initialY = 2155m
**.node[99].mobility.initialZ = 0m
**.node[99].appl.id = "M74"

**.node[100].mobility.initialX = 718m
**.node[100].mobility.initialY = 2266m
**.node[100].mobility.initialZ = 0m
**.node[100].appl.id = "M75"

**.node[101].mobility.initialX = 545m
**.node[101].mobility.initialY = 1764m
**.node[101].mobility.initialZ = 0m
**.node[101].appl.id = "M76"

**.node[102].mobility.initialX = 419m
**.node[102].mobility.initialY = 2188m
**.node[102].mobility.initialZ = 0m
**.node[102].appl.id = "M77"

**.node[103].mobility.initialX = 808m
**.node[103].mobility.initialY = 1836m
**.node[103].mobility.initialZ = 0m
**.node[103].appl.id = "M78"

**.node[104].mobility.initialX = 788m
**.node[104].mobility.initialY = 1940m
**.node[104].mobility.initialZ = 0m
**.node[104].appl.id = "M79"

**.node[105].mobility.initialX = 659m
**.node[105].mobility.initialY = 1775m
**.node[105].mobility.initialZ = 0m
**.node[105].appl.id = "M80"

**.node[106].mobility.initialX = 549m
**.node[106].mobility.initialY = 1712m
**.node[106].mobility.initialZ = 0m
**.node[106].appl.id = "M81"

**.node[107].mobility.initialX = 720m
**.node[107].mobility.initialY = 2169m
**.node[107].mobility.initialZ = 0m
**.node[107].appl.id = "M82"

**.node[108].mobility.initialX = 791m
**.node[108].mobility.initialY = 1831m
**.node[108].mobility.initialZ = 0m
**.node[108].appl.id = "M83"

**.node[109].mobility.initialX = 810m
**.node[109].mobility.initialY = 2011m
**.node[109].mobility.initialZ = 0m
**.node[109].appl.id = "M84"

**.node[110].mobility.initialX = 2309m
**.node[110].mobility.initialY = 1150m
**.node[110].mobility.initialZ = 0m
**.node[110].appl.id = "M85"

**.node[111].mobility.initialX = 2452m
**.node[111].mobility.initialY = 1001m
**.node[111].mobility.initialZ = 0m
**.node[111].appl.id = "M86"

**.node[112].mobility.initialX = 2604m
**.node[112].mobility.initialY = 879m
**.node[112].mobility.initialZ = 0m
**.node[112].appl.id = "M87"

**.node[113].mobility.initialX = 2338m
**.node[113].mobility.initialY = 809m
**.node[113].mobility.initialZ = 0m
**.node[113].appl.id = "M88"

**.node[114].mobility.initialX = 2216m
**.node[114].mobility.initialY = 1071m
**.node[114].mobility.initialZ = 0m
**.node[114].appl.id = "M89"

**.node[115].mobility.initialX = 2314m
**.node[115].mobility.initialY = 769m
**.node[115].mobility.initialZ = 0m
**.node[115].appl.id = "M90"

**.node[116].mobility.initialX = 2157m
**.node[116].mobility.initialY = 775m
**.node[116].mobility.initialZ = 0m
**.node[116].appl.id = "M91"

**.node[117].mobility.initialX = 2239m
**.node[117].mobility.initialY = 654m
**.node[117].mobility.initialZ = 0m
**.node[117].appl.id = "M92"

**.node[118].mobility.initialX = 2632m
**.node[118].mobility.initialY = 852m
**.node[118].mobility.initialZ = 0m
**.node[118].appl.id = "M93"

**.node[119].mobility.initialX = 2650m
**.node[119].mobility.initialY = 908m
**.node[119].mobility.initialZ = 0m
**.node[119].appl.id = "M94"

**.node[120].mobility.initialX = 2495m
**.node[120].mobility.initialY = 681m
**.node[120].mobility.initialZ = 0m
**.node[120].appl.id = "M95"

**.node[121].mobility.initialX = 2576m
**.node[121].mobility.initialY = 658m
**.node[121].mobility.initialZ = 0m
**.node[121].appl.id = "M96"

**.node[122].mobility.initialX = 2594m
**.node[122].mobility.initialY = 709m
**.node[122].mobility.initialZ = 0m
**.node[122].appl.id = "M97"

**.node[123].mobility.initialX = 2618m
**.node[123].mobility.initialY = 948m
**.node[123].mobility.initialZ = 0m
**.node[123].appl.id = "M98"

**.node[124].mobility.initialX = 2476m
**.node[124].mobility.initialY = 921m
**.node[124].mobility.initialZ = 0m
**.node[124].appl.id = "M99"

**.node[125].mobility.initialX = 2564m
**.node[125].mobility.initialY = 664m
**.node[125].mobility.initialZ = 0m
**.node[125].appl.id = "M100"

**.node[126].mobility.initialX = 2169m
**.node[126].mobility.initialY = 1002m
**.node[126].mobility.initialZ = 0m
**.node[126].appl.id = "M101"

**.node[127].mobility.initialX = 2410m
**.node[127].mobility.initialY = 669m
**.node[127].mobility.initialZ = 0m
**.node[127].appl.id = "M102"

**.node[128].mobility.initialX = 2186m
**.node[128].mobility.initialY = 886m
**.node[128].mobility.initialZ = 0m
**.node[128].appl.id = "M103"

**.node[129].mobility.initialX = 2664m
**.node[129].mobility.initialY = 797m
**.node[129].mobility.initialZ = 0m
**.node[129].appl.id = "M104"

**.node[130].mobility.initialX = 2329m
**.node[130].mobility.initialY = 618m
**.node[130].mobility.initialZ = 0m
**.node[130].appl.id = "M105"

**.node[131].mobility.initialX = 2649m
**.node[131].mobility.initialY = 868m
**.node[131].mobility.initialZ = 0m
**.node[131].appl.id = "M106"

**.node[132].mobility.initialX = 2311m
**.node[132].mobility.initialY = 896m
**.node[132].mobility.initialZ = 0m
**.node[132].appl.id = "M107"

**.node[133].mobility.initialX = 2406m
**.node[133].mobility.initialY = 691m
**.node[133].mobility.initialZ = 0m
**.node[133].appl.id = "M108"

**.node[134].mobility.initialX = 2362m
**.node[134].mobility.initialY = 770m
**.node[134].mobility.initialZ = 0m
**.node[134].appl.id = "M109"

**.node[135].mobility.initialX = 2142m
**.node[135].mobility.initialY = 895m
**.node[135].mobility.initialZ = 0m
**.node[135].appl.id = "M110"

**.node[136].mobility.initialX = 2497m
**.node[136].mobility.initialY = 750m
**.node[136].mobility.initialZ = 0m
**.node[136].appl.id = "M111"

**.node[137].mobility.initialX = 2405m
**.node[137].mobility.initialY = 966m
**.node[137].mobility.initialZ = 0m
**.node[137].appl.id = "M112"

**.node[138].mobility.initialX = 2621m
**.node[138].mobility.initialY = 777m
**.node[138].mobility.initialZ = 0m
**.node[138].appl.id = "M113"

**.node[139].mobility.initialX = 2269m
**.node[139].mobility.initialY = 843m
**.node[139].mobility.initialZ = 0m
**.node[139].appl.id = "M114"

**.node[140].mobility.initialX = 741m
**.node[140].mobility.initialY = 254m
**.node[140].mobility.initialZ = 0m
**.node[140].appl.id = "O0"

**.node[141].mobility.initialX = 270m
**.node[141].mobility.initialY = 230m
**.node[141].mobility.initialZ = 0m
**.node[141].appl.id = "O1"

**.node[142].mobility.initialX = 665m
**.node[142].mobility.initialY = 348m
**.node[142].mobility.initialZ = 0m
**.node[142].appl.id = "O2"

**.node[143].mobility.initialX = 364m
**.node[143].mobility.initialY = 628m
**.node[143].mobility.initialZ = 0m
**.node[143].appl.id = "O3"

**.node[144].mobility.initialX = 417m
**.node[144].mobility.initialY = 432m
**.node[144].mobility.initialZ = 0m
**.node[144].appl.id = "O4"

**.node[145].mobility.initialX = 335m
**.node[145].mobility.initialY = 684m
**.node[145].mobility.initialZ = 0m
**.node[145].appl.id = "O5"

**.node[146].mobility.initialX = 854m
**.node[146].mobility.initialY = 389m
**.node[146].mobility.initialZ = 0m
**.node[146].appl.id = "O6"

**.node[147].mobility.initialX = 110m
**.node[147].mobility.initialY = 767m
**.node[147].mobility.initialZ = 0m
**.node[147].appl.id = "O7"

**.node[148].mobility.initialX = 983m
**.node[148].mobility.initialY = 568m
**.node[148].mobility.initialZ = 0m
**.node[148].appl.id = "O8"

**.node[149].mobility.initialX = 773m
**.node[149].mobility.initialY = 167m
**.node[149].mobility.initialZ = 0m
**.node[149].appl.id = "O9"

**.node[150].mobility.initialX = 90m
**.node[150].mobility.initialY = 66m
**.node[150].mobility.initialZ = 0m
**.node[150].appl.id = "O10"

**.node[151].mobility.initialX = 181m
**.node[151].mobility.initialY = 165m
**.node[151].mobility.initialZ = 0m
**.node[151].appl.id = "O11"

**.node[152].mobility.initialX = 472m