[General]
cmdenv-express-mode = true
network = manet.MANET
sim-time-limit = 10s
cmdenv-express-mode = true
record-eventlog=false
**.vector-recording=false

load-libs = model oppcmdenv
ned-path = model;mixim/examples;mixim/src/base;mixim/src/inet_stub;mixim/src/modules 

**.drawMaxIntfDist = true
##########################################################
#	 Simulation parameters                        #
##########################################################
**.**.coreDebug = false
**.playgroundSizeX = 1300m
**.playgroundSizeY = 1300m
**.playgroundSizeZ = 10m

##########################################################
#	 WorldUtility parameters                      #
##########################################################
**.world.useTorus = false

##########################################################
#       Parameters for the ConnectionManager             #
##########################################################
**.connectionManager.carrierFrequency = 2.4e9Hz  # [Hz]

# max transmission power [mW]
**.connectionManager.pMax = 1.1mW  # [mW]
# signal attenuation threshold [dBm]
**.connectionManager.sat = -100dBm  # [dBm]
# path loss coefficient alpha
**.connectionManager.alpha = 2.5
**.connectionManager.sendDirect = false

##########################################################
#       Parameters for the Host                          #
##########################################################
**.node[*].nicType = "Nic802154_TI_CC2420" # max range around 250m
############# Phy parameters #############################
**.phy.usePropagationDelay = false
**.phy.useThermalNoise = true
**.phy.analogueModels = xmldoc("config.xml")
**.phy.maxTXPower = 1.1mW
**.phy.sensitivity = -100dBm
############# Battery statistic parameters ###############
**.batteryStats.debug = false
**.batteryStats.detail = false
**.batteryStats.timeSeries = false
############# Battery parameters #########################
**.battery.debug = false
**.battery.nominal = 99999mAh
**.battery.capacity = 99999mAh
**.battery.voltage = 3.3V
**.battery.resolution = 10s
**.battery.publishDelta = 0.1
**.battery.publishTime = 0
**.battery.numDevices = 1
################ Application layer parameters ############
**.node[*].applicationType = "JDEECoApplication"
################ NETW layer parameters ###################
**.node[*].netwl.headerLength = 32bit
################ Mobility parameters #####################
**.node[*].mobilityType = "StationaryMobility"
**.node[*].mobility.initFromDisplayString = false

# the following is to be generated
#**.numNodes = 5

#**.node[0].mobility.initialX = 150m
#**.node[0].mobility.initialY = 200m
#**.node[0].mobility.initialZ = 250m
#**.node[0].appl.id = NodeID

**.numNodes = 675

**.node[0].mobility.initialX = 1090m
**.node[0].mobility.initialY = 523m
**.node[0].mobility.initialZ = 0m
**.node[0].appl.id = "M1"

**.node[1].mobility.initialX = 327m
**.node[1].mobility.initialY = 467m
**.node[1].mobility.initialZ = 0m
**.node[1].appl.id = "M2"

**.node[2].mobility.initialX = 501m
**.node[2].mobility.initialY = 891m
**.node[2].mobility.initialZ = 0m
**.node[2].appl.id = "M3"

**.node[3].mobility.initialX = 388m
**.node[3].mobility.initialY = 788m
**.node[3].mobility.initialZ = 0m
**.node[3].appl.id = "M4"

**.node[4].mobility.initialX = 861m
**.node[4].mobility.initialY = 676m
**.node[4].mobility.initialZ = 0m
**.node[4].appl.id = "M5"

**.node[5].mobility.initialX = 882m
**.node[5].mobility.initialY = 214m
**.node[5].mobility.initialZ = 0m
**.node[5].appl.id = "M6"

**.node[6].mobility.initialX = 814m
**.node[6].mobility.initialY = 424m
**.node[6].mobility.initialZ = 0m
**.node[6].appl.id = "M7"

**.node[7].mobility.initialX = 773m
**.node[7].mobility.initialY = 754m
**.node[7].mobility.initialZ = 0m
**.node[7].appl.id = "M8"

**.node[8].mobility.initialX = 134m
**.node[8].mobility.initialY = 424m
**.node[8].mobility.initialZ = 0m
**.node[8].appl.id = "M9"

**.node[9].mobility.initialX = 536m
**.node[9].mobility.initialY = 770m
**.node[9].mobility.initialZ = 0m
**.node[9].appl.id = "M10"

**.node[10].mobility.initialX = 720m
**.node[10].mobility.initialY = 167m
**.node[10].mobility.initialZ = 0m
**.node[10].appl.id = "M11"

**.node[11].mobility.initialX = 469m
**.node[11].mobility.initialY = 435m
**.node[11].mobility.initialZ = 0m
**.node[11].appl.id = "M12"

**.node[12].mobility.initialX = 706m
**.node[12].mobility.initialY = 580m
**.node[12].mobility.initialZ = 0m
**.node[12].appl.id = "M13"

**.node[13].mobility.initialX = 662m
**.node[13].mobility.initialY = 844m
**.node[13].mobility.initialZ = 0m
**.node[13].appl.id = "M14"

**.node[14].mobility.initialX = 454m
**.node[14].mobility.initialY = 820m
**.node[14].mobility.initialZ = 0m
**.node[14].appl.id = "M15"

**.node[15].mobility.initialX = 995m
**.node[15].mobility.initialY = 500m
**.node[15].mobility.initialZ = 0m
**.node[15].appl.id = "M16"

**.node[16].mobility.initialX = 295m
**.node[16].mobility.initialY = 600m
**.node[16].mobility.initialZ = 0m
**.node[16].appl.id = "M17"

**.node[17].mobility.initialX = 513m
**.node[17].mobility.initialY = 180m
**.node[17].mobility.initialZ = 0m
**.node[17].appl.id = "M18"

**.node[18].mobility.initialX = 479m
**.node[18].mobility.initialY = 620m
**.node[18].mobility.initialZ = 0m
**.node[18].appl.id = "M19"

**.node[19].mobility.initialX = 944m
**.node[19].mobility.initialY = 802m
**.node[19].mobility.initialZ = 0m
**.node[19].appl.id = "M20"

**.node[20].mobility.initialX = 554m
**.node[20].mobility.initialY = 845m
**.node[20].mobility.initialZ = 0m
**.node[20].appl.id = "M21"

**.node[21].mobility.initialX = 580m
**.node[21].mobility.initialY = 596m
**.node[21].mobility.initialZ = 0m
**.node[21].appl.id = "M22"

**.node[22].mobility.initialX = 560m
**.node[22].mobility.initialY = 560m
**.node[22].mobility.initialZ = 0m
**.node[22].appl.id = "M23"

**.node[23].mobility.initialX = 148m
**.node[23].mobility.initialY = 635m
**.node[23].mobility.initialZ = 0m
**.node[23].appl.id = "M24"

**.node[24].mobility.initialX = 890m
**.node[24].mobility.initialY = 664m
**.node[24].mobility.initialZ = 0m
**.node[24].appl.id = "M25"

**.node[25].mobility.initialX = 219m
**.node[25].mobility.initialY = 678m
**.node[25].mobility.initialZ = 0m
**.node[25].appl.id = "M26"

**.node[26].mobility.initialX = 919m
**.node[26].mobility.initialY = 306m
**.node[26].mobility.initialZ = 0m
**.node[26].appl.id = "M27"

**.node[27].mobility.initialX = 239m
**.node[27].mobility.initialY = 280m
**.node[27].mobility.initialZ = 0m
**.node[27].appl.id = "M28"

**.node[28].mobility.initialX = 730m
**.node[28].mobility.initialY = 861m
**.node[28].mobility.initialZ = 0m
**.node[28].appl.id = "M29"

**.node[29].mobility.initialX = 754m
**.node[29].mobility.initialY = 506m
**.node[29].mobility.initialZ = 0m
**.node[29].appl.id = "M30"

**.node[30].mobility.initialX = 709m
**.node[30].mobility.initialY = 495m
**.node[30].mobility.initialZ = 0m
**.node[30].appl.id = "M31"

**.node[31].mobility.initialX = 700m
**.node[31].mobility.initialY = 861m
**.node[31].mobility.initialZ = 0m
**.node[31].appl.id = "M32"

**.node[32].mobility.initialX = 792m
**.node[32].mobility.initialY = 998m
**.node[32].mobility.initialZ = 0m
**.node[32].appl.id = "M33"

**.node[33].mobility.initialX = 374m
**.node[33].mobility.initialY = 279m
**.node[33].mobility.initialZ = 0m
**.node[33].appl.id = "M34"

**.node[34].mobility.initialX = 561m
**.node[34].mobility.initialY = 400m
**.node[34].mobility.initialZ = 0m
**.node[34].appl.id = "M35"

**.node[35].mobility.initialX = 550m
**.node[35].mobility.initialY = 977m
**.node[35].mobility.initialZ = 0m
**.node[35].appl.id = "M36"

**.node[36].mobility.initialX = 390m
**.node[36].mobility.initialY = 442m
**.node[36].mobility.initialZ = 0m
**.node[36].appl.id = "M37"

**.node[37].mobility.initialX = 905m
**.node[37].mobility.initialY = 680m
**.node[37].mobility.initialZ = 0m
**.node[37].appl.id = "M38"

**.node[38].mobility.initialX = 763m
**.node[38].mobility.initialY = 372m
**.node[38].mobility.initialZ = 0m
**.node[38].appl.id = "M39"

**.node[39].mobility.initialX = 139m
**.node[39].mobility.initialY = 408m
**.node[39].mobility.initialZ = 0m
**.node[39].appl.id = "M40"

**.node[40].mobility.initialX = 986m
**.node[40].mobility.initialY = 294m
**.node[40].mobility.initialZ = 0m
**.node[40].appl.id = "M41"

**.node[41].mobility.initialX = 370m
**.node[41].mobility.initialY = 982m
**.node[41].mobility.initialZ = 0m
**.node[41].appl.id = "M42"

**.node[42].mobility.initialX = 668m
**.node[42].mobility.initialY = 988m
**.node[42].mobility.initialZ = 0m
**.node[42].appl.id = "M43"

**.node[43].mobility.initialX = 687m
**.node[43].mobility.initialY = 476m
**.node[43].mobility.initialZ = 0m
**.node[43].appl.id = "M44"

**.node[44].mobility.initialX = 1078m
**.node[44].mobility.initialY = 466m
**.node[44].mobility.initialZ = 0m
**.node[44].appl.id = "M45"

**.node[45].mobility.initialX = 527m
**.node[45].mobility.initialY = 609m
**.node[45].mobility.initialZ = 0m
**.node[45].appl.id = "M46"

**.node[46].mobility.initialX = 893m
**.node[46].mobility.initialY = 257m
**.node[46].mobility.initialZ = 0m
**.node[46].appl.id = "M47"

**.node[47].mobility.initialX = 501m
**.node[47].mobility.initialY = 464m
**.node[47].mobility.initialZ = 0m
**.node[47].appl.id = "M48"

**.node[48].mobility.initialX = 849m
**.node[48].mobility.initialY = 198m
**.node[48].mobility.initialZ = 0m
**.node[48].appl.id = "M49"

**.node[49].mobility.initialX = 562m
**.node[49].mobility.initialY = 770m
**.node[49].mobility.initialZ = 0m
**.node[49].appl.id = "M50"

**.node[50].mobility.initialX = 633m
**.node[50].mobility.initialY = 1016m
**.node[50].mobility.initialZ = 0m
**.node[50].appl.id = "M51"

**.node[51].mobility.initialX = 897m
**.node[51].mobility.initialY = 893m
**.node[51].mobility.initialZ = 0m
**.node[51].appl.id = "M52"

**.node[52].mobility.initialX = 347m
**.node[52].mobility.initialY = 182m
**.node[52].mobility.initialZ = 0m
**.node[52].appl.id = "M53"

**.node[53].mobility.initialX = 757m
**.node[53].mobility.initialY = 587m
**.node[53].mobility.initialZ = 0m
**.node[53].appl.id = "M54"

**.node[54].mobility.initialX = 851m
**.node[54].mobility.initialY = 727m
**.node[54].mobility.initialZ = 0m
**.node[54].appl.id = "M55"

**.node[55].mobility.initialX = 898m
**.node[55].mobility.initialY = 553m
**.node[55].mobility.initialZ = 0m
**.node[55].appl.id = "M56"

**.node[56].mobility.initialX = 647m
**.node[56].mobility.initialY = 917m
**.node[56].mobility.initialZ = 0m
**.node[56].appl.id = "M57"

**.node[57].mobility.initialX = 344m
**.node[57].mobility.initialY = 857m
**.node[57].mobility.initialZ = 0m
**.node[57].appl.id = "M58"

**.node[58].mobility.initialX = 804m
**.node[58].mobility.initialY = 609m
**.node[58].mobility.initialZ = 0m
**.node[58].appl.id = "M59"

**.node[59].mobility.initialX = 1075m
**.node[59].mobility.initialY = 559m
**.node[59].mobility.initialZ = 0m
**.node[59].appl.id = "M60"

**.node[60].mobility.initialX = 691m
**.node[60].mobility.initialY = 857m
**.node[60].mobility.initialZ = 0m
**.node[60].appl.id = "M61"

**.node[61].mobility.initialX = 807m
**.node[61].mobility.initialY = 976m
**.node[61].mobility.initialZ = 0m
**.node[61].appl.id = "M62"

**.node[62].mobility.initialX = 423m
**.node[62].mobility.initialY = 277m
**.node[62].mobility.initialZ = 0m
**.node[62].appl.id = "M63"

**.node[63].mobility.initialX = 1014m
**.node[63].mobility.initialY = 659m
**.node[63].mobility.initialZ = 0m
**.node[63].appl.id = "M64"

**.node[64].mobility.initialX = 984m
**.node[64].mobility.initialY = 393m
**.node[64].mobility.initialZ = 0m
**.node[64].appl.id = "M65"

**.node[65].mobility.initialX = 602m
**.node[65].mobility.initialY = 685m
**.node[65].mobility.initialZ = 0m
**.node[65].appl.id = "M66"

**.node[66].mobility.initialX = 710m
**.node[66].mobility.initialY = 336m
**.node[66].mobility.initialZ = 0m
**.node[66].appl.id = "M67"

**.node[67].mobility.initialX = 848m
**.node[67].mobility.initialY = 220m
**.node[67].mobility.initialZ = 0m
**.node[67].appl.id = "M68"

**.node[68].mobility.initialX = 929m
**.node[68].mobility.initialY = 452m
**.node[68].mobility.initialZ = 0m
**.node[68].appl.id = "M69"

**.node[69].mobility.initialX = 328m
**.node[69].mobility.initialY = 182m
**.node[69].mobility.initialZ = 0m
**.node[69].appl.id = "M70"

**.node[70].mobility.initialX = 522m
**.node[70].mobility.initialY = 786m
**.node[70].mobility.initialZ = 0m
**.node[70].appl.id = "M71"

**.node[71].mobility.initialX = 897m
**.node[71].mobility.initialY = 786m
**.node[71].mobility.initialZ = 0m
**.node[71].appl.id = "M72"

**.node[72].mobility.initialX = 157m
**.node[72].mobility.initialY = 662m
**.node[72].mobility.initialZ = 0m
**.node[72].appl.id = "M73"

**.node[73].mobility.initialX = 457m
**.node[73].mobility.initialY = 300m
**.node[73].mobility.initialZ = 0m
**.node[73].appl.id = "M74"

**.node[74].mobility.initialX = 285m
**.node[74].mobility.initialY = 227m
**.node[74].mobility.initialZ = 0m
**.node[74].appl.id = "M75"

**.node[75].mobility.initialX = 813m
**.node[75].mobility.initialY = 353m
**.node[75].mobility.initialZ = 0m
**.node[75].appl.id = "M76"

**.node[76].mobility.initialX = 199m
**.node[76].mobility.initialY = 571m
**.node[76].mobility.initialZ = 0m
**.node[76].appl.id = "M77"

**.node[77].mobility.initialX = 886m
**.node[77].mobility.initialY = 287m
**.node[77].mobility.initialZ = 0m
**.node[77].appl.id = "M78"

**.node[78].mobility.initialX = 773m
**.node[78].mobility.initialY = 846m
**.node[78].mobility.initialZ = 0m
**.node[78].appl.id = "M79"

**.node[79].mobility.initialX = 1064m
**.node[79].mobility.initialY = 706m
**.node[79].mobility.initialZ = 0m
**.node[79].appl.id = "M80"

**.node[80].mobility.initialX = 131m
**.node[80].mobility.initialY = 471m
**.node[80].mobility.initialZ = 0m
**.node[80].appl.id = "M81"

**.node[81].mobility.initialX = 523m
**.node[81].mobility.initialY = 801m
**.node[81].mobility.initialZ = 0m
**.node[81].appl.id = "M82"

**.node[82].mobility.initialX = 413m
**.node[82].mobility.initialY = 617m
**.node[82].mobility.initialZ = 0m
**.node[82].appl.id = "M83"

**.node[83].mobility.initialX = 848m
**.node[83].mobility.initialY = 183m
**.node[83].mobility.initialZ = 0m
**.node[83].appl.id = "M84"

**.node[84].mobility.initialX = 890m
**.node[84].mobility.initialY = 265m
**.node[84].mobility.initialZ = 0m
**.node[84].appl.id = "M85"

**.node[85].mobility.initialX = 932m
**.node[85].mobility.initialY = 637m
**.node[85].mobility.initialZ = 0m
**.node[85].appl.id = "M86"

**.node[86].mobility.initialX = 597m
**.node[86].mobility.initialY = 847m
**.node[86].mobility.initialZ = 0m
**.node[86].appl.id = "M87"

**.node[87].mobility.initialX = 765m
**.node[87].mobility.initialY = 593m
**.node[87].mobility.initialZ = 0m
**.node[87].appl.id = "M88"

**.node[88].mobility.initialX = 990m
**.node[88].mobility.initialY = 691m
**.node[88].mobility.initialZ = 0m
**.node[88].appl.id = "M89"

**.node[89].mobility.initialX = 1049m
**.node[89].mobility.initialY = 514m
**.node[89].mobility.initialZ = 0m
**.node[89].appl.id = "M90"

**.node[90].mobility.initialX = 917m
**.node[90].mobility.initialY = 879m
**.node[90].mobility.initialZ = 0m
**.node[90].appl.id = "M91"

**.node[91].mobility.initialX = 896m
**.node[91].mobility.initialY = 645m
**.node[91].mobility.initialZ = 0m
**.node[91].appl.id = "M92"

**.node[92].mobility.initialX = 763m
**.node[92].mobility.initialY = 653m
**.node[92].mobility.initialZ = 0m
**.node[92].appl.id = "M93"

**.node[93].mobility.initialX = 705m
**.node[93].mobility.initialY = 168m
**.node[93].mobility.initialZ = 0m
**.node[93].appl.id = "M94"

**.node[94].mobility.initialX = 226m
**.node[94].mobility.initialY = 430m
**.node[94].mobility.initialZ = 0m
**.node[94].appl.id = "M95"

**.node[95].mobility.initialX = 403m
**.node[95].mobility.initialY = 968m
**.node[95].mobility.initialZ = 0m
**.node[95].appl.id = "M96"

**.node[96].mobility.initialX = 972m
**.node[96].mobility.initialY = 503m
**.node[96].mobility.initialZ = 0m
**.node[96].appl.id = "M97"

**.node[97].mobility.initialX = 638m
**.node[97].mobility.initialY = 555m
**.node[97].mobility.initialZ = 0m
**.node[97].appl.id = "M98"

**.node[98].mobility.initialX = 450m
**.node[98].mobility.initialY = 492m
**.node[98].mobility.initialZ = 0m
**.node[98].appl.id = "M99"

**.node[99].mobility.initialX = 180m
**.node[99].mobility.initialY = 408m
**.node[99].mobility.initialZ = 0m
**.node[99].appl.id = "M100"

**.node[100].mobility.initialX = 797m
**.node[100].mobility.initialY = 282m
**.node[100].mobility.initialZ = 0m
**.node[100].appl.id = "M101"

**.node[101].mobility.initialX = 533m
**.node[101].mobility.initialY = 360m
**.node[101].mobility.initialZ = 0m
**.node[101].appl.id = "M102"

**.node[102].mobility.initialX = 628m
**.node[102].mobility.initialY = 318m
**.node[102].mobility.initialZ = 0m
**.node[102].appl.id = "M103"

**.node[103].mobility.initialX = 485m
**.node[103].mobility.initialY = 400m
**.node[103].mobility.initialZ = 0m
**.node[103].appl.id = "M104"

**.node[104].mobility.initialX = 618m
**.node[104].mobility.initialY = 882m
**.node[104].mobility.initialZ = 0m
**.node[104].appl.id = "M105"

**.node[105].mobility.initialX = 1004m
**.node[105].mobility.initialY = 660m
**.node[105].mobility.initialZ = 0m
**.node[105].appl.id = "M106"

**.node[106].mobility.initialX = 462m
**.node[106].mobility.initialY = 607m
**.node[106].mobility.initialZ = 0m
**.node[106].appl.id = "M107"

**.node[107].mobility.initialX = 374m
**.node[107].mobility.initialY = 857m
**.node[107].mobility.initialZ = 0m
**.node[107].appl.id = "M108"

**.node[108].mobility.initialX = 378m
**.node[108].mobility.initialY = 670m
**.node[108].mobility.initialZ = 0m
**.node[108].appl.id = "M109"

**.node[109].mobility.initialX = 513m
**.node[109].mobility.initialY = 637m
**.node[109].mobility.initialZ = 0m
**.node[109].appl.id = "M110"

**.node[110].mobility.initialX = 306m
**.node[110].mobility.initialY = 268m
**.node[110].mobility.initialZ = 0m
**.node[110].appl.id = "M111"

**.node[111].mobility.initialX = 767m
**.node[111].mobility.initialY = 936m
**.node[111].mobility.initialZ = 0m
**.node[111].appl.id = "M112"

**.node[112].mobility.initialX = 741m
**.node[112].mobility.initialY = 681m
**.node[112].mobility.initialZ = 0m
**.node[112].appl.id = "M113"

**.node[113].mobility.initialX = 277m
**.node[113].mobility.initialY = 720m
**.node[113].mobility.initialZ = 0m
**.node[113].appl.id = "M114"

**.node[114].mobility.initialX = 459m
**.node[114].mobility.initialY = 346m
**.node[114].mobility.initialZ = 0m
**.node[114].appl.id = "M115"

**.node[115].mobility.initialX = 798m
**.node[115].mobility.initialY = 820m
**.node[115].mobility.initialZ = 0m
**.node[115].appl.id = "M116"

**.node[116].mobility.initialX = 151m
**.node[116].mobility.initialY = 626m
**.node[116].mobility.initialZ = 0m
**.node[116].appl.id = "M117"

**.node[117].mobility.initialX = 788m
**.node[117].mobility.initialY = 184m
**.node[117].mobility.initialZ = 0m
**.node[117].appl.id = "M118"

**.node[118].mobility.initialX = 368m
**.node[118].mobility.initialY = 842m
**.node[118].mobility.initialZ = 0m
**.node[118].appl.id = "M119"

**.node[119].mobility.initialX = 743m
**.node[119].mobility.initialY = 441m
**.node[119].mobility.initialZ = 0m
**.node[119].appl.id = "M120"

**.node[120].mobility.initialX = 337m
**.node[120].mobility.initialY = 944m
**.node[120].mobility.initialZ = 0m
**.node[120].appl.id = "M121"

**.node[121].mobility.initialX = 314m
**.node[121].mobility.initialY = 240m
**.node[121].mobility.initialZ = 0m
**.node[121].appl.id = "M122"

**.node[122].mobility.initialX = 206m
**.node[122].mobility.initialY = 855m
**.node[122].mobility.initialZ = 0m
**.node[122].appl.id = "M123"

**.node[123].mobility.initialX = 366m
**.node[123].mobility.initialY = 404m
**.node[123].mobility.initialZ = 0m
**.node[123].appl.id = "M124"

**.node[124].mobility.initialX = 925m
**.node[124].mobility.initialY = 767m
**.node[124].mobility.initialZ = 0m
**.node[124].appl.id = "M125"

**.node[125].mobility.initialX = 750m
**.node[125].mobility.initialY = 655m
**.node[125].mobility.initialZ = 0m
**.node[125].appl.id = "M126"

**.node[126].mobility.initialX = 191m
**.node[126].mobility.initialY = 754m
**.node[126].mobility.initialZ = 0m
**.node[126].appl.id = "M127"

**.node[127].mobility.initialX = 760m
**.node[127].mobility.initialY = 828m
**.node[127].mobility.initialZ = 0m
**.node[127].appl.id = "M128"

**.node[128].mobility.initialX = 361m
**.node[128].mobility.initialY = 1000m
**.node[128].mobility.initialZ = 0m
**.node[128].appl.id = "M129"

**.node[129].mobility.initialX = 386m
**.node[129].mobility.initialY = 339m
**.node[129].mobility.initialZ = 0m
**.node[129].appl.id = "M130"

**.node[130].mobility.initialX = 663m
**.node[130].mobility.initialY = 924m
**.node[130].mobility.initialZ = 0m
**.node[130].appl.id = "M131"

**.node[131].mobility.initialX = 160m
**.node[131].mobility.initialY = 560m
**.node[131].mobility.initialZ = 0m
**.node[131].appl.id = "M132"

**.node[132].mobility.initialX = 236m
**.node[132].mobility.initialY = 791m
**.node[132].mobility.initialZ = 0m
**.node[132].appl.id = "M133"

**.node[133].mobility.initialX = 363m
**.node[133].mobility.initialY = 717m
**.node[133].mobility.initialZ = 0m
**.node[133].appl.id = "M134"

**.node[134].mobility.initialX = 267m
**.node[134].mobility.initialY = 332m
**.node[134].mobility.initialZ = 0m
**.node[134].appl.id = "M135"

**.node[135].mobility.initialX = 238m
**.node[135].mobility.initialY = 686m
**.node[135].mobility.initialZ = 0m
**.node[135].appl.id = "M136"

**.node[136].mobility.initialX = 1016m
**.node[136].mobility.initialY = 581m
**.node[136].mobility.initialZ = 0m
**.node[136].appl.id = "M137"

**.node[137].mobility.initialX = 143m
**.node[137].mobility.initialY = 552m
**.node[137].mobility.initialZ = 0m
**.node[137].appl.id = "M138"

**.node[138].mobility.initialX = 1066m
**.node[138].mobility.initialY = 604m
**.node[138].mobility.initialZ = 0m
**.node[138].appl.id = "M139"

**.node[139].mobility.initialX = 663m
**.node[139].mobility.initialY = 413m
**.node[139].mobility.initialZ = 0m
**.node[139].appl.id = "M140"

**.node[140].mobility.initialX = 841m
**.node[140].mobility.initialY = 187m
**.node[140].mobility.initialZ = 0m
**.node[140].appl.id = "M141"

**.node[141].mobility.initialX = 723m
**.node[141].mobility.initialY = 372m
**.node[141].mobility.initialZ = 0m
**.node[141].appl.id = "M142"

**.node[142].mobility.initialX = 571m
**.node[142].mobility.initialY = 494m
**.node[142].mobility.initialZ = 0m
**.node[142].appl.id = "M143"

**.node[143].mobility.initialX = 149m
**.node[143].mobility.initialY = 564m
**.node[143].mobility.initialZ = 0m
**.node[143].appl.id = "M144"

**.node[144].mobility.initialX = 1040m
**.node[144].mobility.initialY = 738m
**.node[144].mobility.initialZ = 0m
**.node[144].appl.id = "M145"

**.node[145].mobility.initialX = 261m
**.node[145].mobility.initialY = 548m
**.node[145].mobility.initialZ = 0m
**.node[145].appl.id = "M146"

**.node[146].mobility.initialX = 732m
**.node[146].mobility.initialY = 431m
**.node[146].mobility.initialZ = 0m
**.node[146].appl.id = "M147"

**.node[147].mobility.initialX = 493m
**.node[147].mobility.initialY = 602m
**.node[147].mobility.initialZ = 0m
**.node[147].appl.id = "M148"

**.node[148].mobility.initialX = 647m
**.node[148].mobility.initialY = 683m
**.node[148].mobility.initialZ = 0m
**.node[148].appl.id = "M149"

**.node[149].mobility.initialX = 719m
**.node[149].mobility.initialY = 263m
**.node[149].mobility.initialZ = 0m
**.node[149].appl.id = "M150"

**.node[150].mobility.initialX = 1089m
**.node[150].mobility.initialY = 559m
**.node[150].mobility.initialZ = 0m
**.node[150].appl.id = "M151"

**.node[151].mobility.initialX = 381m
**.node[151].mobility.initialY = 780m
**.node[151].mobility.initialZ = 0m
**.node[151].appl.id = "M152"

**.node[152].mobility.initialX = 573m
**.node[152].mobility.initialY = 856m
**.node[152].mobility.initialZ = 0m
**.node[152].appl.id = "M153"

**.node[153].mobility.initialX = 130m
**.node[153].mobility.initialY = 438m
**.node[153].mobility.initialZ = 0m
**.node[153].appl.id = "M154"

**.node[154].mobility.initialX = 885m
**.node[154].mobility.initialY = 620m
**.node[154].mobility.initialZ = 0m
**.node[154].appl.id = "M155"

**.node[155].mobility.initialX = 625m
**.node[155].mobility.initialY = 1076m
**.node[155].mobility.initialZ = 0m
**.node[155].appl.id = "M156"

**.node[156].mobility.initialX = 849m
**.node[156].mobility.initialY = 906m
**.node[156].mobility.initialZ = 0m
**.node[156].appl.id = "M157"

**.node[157].mobility.initialX = 266m
**.node[157].mobility.initialY = 827m
**.node[157].mobility.initialZ = 0m
**.node[157].appl.id = "M158"

**.node[158].mobility.initialX = 596m
**.node[158].mobility.initialY = 773m
**.node[158].mobility.initialZ = 0m
**.node[158].appl.id = "M159"

**.node[159].mobility.initialX = 721m
**.node[159].mobility.initialY = 937m
**.node[159].mobility.initialZ = 0m
**.node[159].appl.id = "M160"

**.node[160].mobility.initialX = 873m
**.node[160].mobility.initialY = 891m
**.node[160].mobility.initialZ = 0m
**.node[160].appl.id = "M161"

**.node[161].mobility.initialX = 834m
**.node[161].mobility.initialY = 926m
**.node[161].mobility.initialZ = 0m
**.node[161].appl.id = "M162"

**.node[162].mobility.initialX = 570m
**.node[162].mobility.initialY = 205m
**.node[162].mobility.initialZ = 0m
**.node[162].appl.id = "M163"

**.node[163].mobility.initialX = 535m
**.node[163].mobility.initialY = 111m
**.node[163].mobility.initialZ = 0m
**.node[163].appl.id = "M164"

**.node[164].mobility.initialX = 200m
**.node[164].mobility.initialY = 471m
**.node[164].mobility.initialZ = 0m
**.node[164].appl.id = "M165"

**.node[165].mobility.initialX = 1041m
**.node[165].mobility.initialY = 832m
**.node[165].mobility.initialZ = 0m
**.node[165].appl.id = "M166"

**.node[166].mobility.initialX = 384m
**.node[166].mobility.initialY = 866m
**.node[166].mobility.initialZ = 0m
**.node[166].appl.id = "M167"

**.node[167].mobility.initialX = 715m
**.node[167].mobility.initialY = 193m
**.node[167].mobility.initialZ = 0m
**.node[167].appl.id = "M168"

**.node[168].mobility.initialX = 444m
**.node[168].mobility.initialY = 144m
**.node[168].mobility.initialZ = 0m
**.node[168].appl.id = "M169"

**.node[169].mobility.initialX = 141m
**.node[169].mobility.initialY = 515m
**.node[169].mobility.initialZ = 0m
**.node[169].appl.id = "M170"

**.node[170].mobility.initialX = 563m
**.node[170].mobility.initialY = 369m
**.node[170].mobility.initialZ = 0m
**.node[170].appl.id = "M171"

**.node[171].mobility.initialX = 714m
**.node[171].mobility.initialY = 759m
**.node[171].mobility.initialZ = 0m
**.node[171].appl.id = "M172"

**.node[172].mobility.initialX = 742m
**.node[172].mobility.initialY = 585m
**.node[172].mobility.initialZ = 0m
**.node[172].appl.id = "M173"

**.node[173].mobility.initialX = 534m
**.node[173].mobility.initialY = 493m
**.node[173].mobility.initialZ = 0m
**.node[173].appl.id = "M174"

**.node[174].mobility.initialX = 540m
**.node[174].mobility.initialY = 446m
**.node[174].mobility.initialZ = 0m
**.node[174].appl.id = "M175"

**.node[175].mobility.initialX = 688m
**.node[175].mobility.initialY = 825m
**.node[175].mobility.initialZ = 0m
**.node[175].appl.id = "M176"

**.node[176].mobility.initialX = 164m
**.node[176].mobility.initialY = 592m
**.node[176].mobility.initialZ = 0m
**.node[176].appl.id = "M177"

**.node[177].mobility.initialX = 193m
**.node[177].mobility.initialY = 756m
**.node[177].mobility.initialZ = 0m
**.node[177].appl.id = "M178"

**.node[178].mobility.initialX = 819m
**.node[178].mobility.initialY = 670m
**.node[178].mobility.initialZ = 0m
**.node[178].appl.id = "M179"

**.node[179].mobility.initialX = 558m
**.node[179].mobility.initialY = 625m
**.node[179].mobility.initialZ = 0m
**.node[179].appl.id = "M180"

**.node[180].mobility.initialX = 636m
**.node[180].mobility.initialY = 638m
**.node[180].mobility.initialZ = 0m
**.node[180].appl.id = "M181"

**.node[181].mobility.initialX = 413m
**.node[181].mobility.initialY = 619m
**.node[181].mobility.initialZ = 0m
**.node[181].appl.id = "M182"

**.node[182].mobility.initialX = 608m
**.node[182].mobility.initialY = 1068m
**.node[182].mobility.initialZ = 0m
**.node[182].appl.id = "M183"

**.node[183].mobility.initialX = 624m
**.node[183].mobility.initialY = 941m
**.node[183].mobility.initialZ = 0m
**.node[183].appl.id = "M184"

**.node[184].mobility.initialX = 872m
**.node[184].mobility.initialY = 788m
**.node[184].mobility.initialZ = 0m
**.node[184].appl.id = "M185"

**.node[185].mobility.initialX = 351m
**.node[185].mobility.initialY = 493m
**.node[185].mobility.initialZ = 0m
**.node[185].appl.id = "M186"

**.node[186].mobility.initialX = 211m
**.node[186].mobility.initialY = 386m
**.node[186].mobility.initialZ = 0m
**.node[186].appl.id = "M187"

**.node[187].mobility.initialX = 880m
**.node[187].mobility.initialY = 384m
**.node[187].mobility.initialZ = 0m
**.node[187].appl.id = "M188"

**.node[188].mobility.initialX = 749m
**.node[188].mobility.initialY = 426m
**.node[188].mobility.initialZ = 0m
**.node[188].appl.id = "M189"

**.node[189].mobility.initialX = 422m
**.node[189].mobility.initialY = 427m
**.node[189].mobility.initialZ = 0m
**.node[189].appl.id = "M190"

**.node[190].mobility.initialX = 769m
**.node[190].mobility.initialY = 1057m
**.node[190].mobility.initialZ = 0m
**.node[190].appl.id = "M191"

**.node[191].mobility.initialX = 512m
**.node[191].mobility.initialY = 1043m
**.node[191].mobility.initialZ = 0m
**.node[191].appl.id = "M192"

**.node[192].mobility.initialX = 358m
**.node[192].mobility.initialY = 815m
**.node[192].mobility.initialZ = 0m
**.node[192].appl.id = "M193"

**.node[193].mobility.initialX = 962m
**.node[193].mobility.initialY = 731m
**.node[193].mobility.initialZ = 0m
**.node[193].appl.id = "M194"

**.node[194].mobility.initialX = 565m