[General]
network = backbone.Network
**.app.packetLength = 128B
**.app.sendInterval = 0.007s
**.app.numPacketsPerBurst = 1
**.v[*].app.destAddress = "ICS"
**.ICS.app.destAddress = "FF:FF:FF:FF:FF:FF"
**.ICS.app.dynamicAPConnections = false
**.ICS.app.responseDelay = 0.02802s
**.v[*].app.responseDelay = 0.02135s
**.v[*].app.dynamicAPConnections = true
**.queue.frameCapacity = 100000
*.vehicleCount = 1
*.accessPointCount = 3
sim-time-limit = 200s
ned-path = model
cmdenv-config-name = V20-A3
load-libs = model oppcmdenv

[Config Test]
*.vehicleCount = 1
*.accessPointCount = 3

[Config V20-A3]
*.vehicleCount = 20
*.accessPointCount = 3
**.v[0].app.id = "0"
**.v[1].app.id = "1"
**.ICS.app.id = "2"

[Config V50-A3]
*.vehicleCount = 50
*.accessPointCount = 3

[Config V70-A3]
*.vehicleCount = 70
*.accessPointCount = 3

[Config V20-A10]
*.vehicleCount = 20
*.accessPointCount = 10

[Config V50-A10]
*.vehicleCount = 50
*.accessPointCount = 10

[Config V70-A10]
*.vehicleCount = 70
*.accessPointCount = 10